[TITLE]


[JUNCTIONS]
;ID              	Elev        	Demand      	Pattern         
 J001            	90.822660   	0           	                	;
 J002            	91.392810   	0           	                	;
 J003            	91.623330   	0           	                	;
 J004            	91.477390   	0           	                	;
 J005            	91.838150   	0           	                	;
 J006            	91.115360   	0           	                	;
 J007            	92.013820   	0.000000    	P_StServaisCentreAll	;
 J008            	89.088430   	0           	                	;
 J009            	88.685600   	0           	                	;
 J010            	91.419080   	0           	                	;
 J011            	92.287880   	0           	                	;
 J012            	90.426090   	0           	                	;
 J013            	92.645660   	0.000000    	P_StServaisCentreAll	;
 J014            	92.795070   	0.014560    	P_StServaisCentreAll	;
 J015            	94.439480   	0.009100    	P_StServaisCentreAll	;
 J016            	99.504600   	0           	                	;
 J017            	92.537710   	0.022793    	P_StServaisCentreAll	;
 J018            	92.732350   	0           	                	;
 J019            	90.937330   	0.002860    	P_StServaisCentreAll	;
 J020            	88.729300   	0.027733    	P_StServaisCentreAll	;
 J021            	91.511380   	0           	                	;
 J022            	90.640820   	0           	                	;
 J023            	92.820660   	0.056073    	P_StServaisCentreAll	;
 J024            	91.979680   	0.000000    	P_StServaisCentreAll	;
 J025            	93.783870   	0.000000    	P_StServaisCentreAll	;
 J026            	97.396290   	0.000000    	P_StServaisCentreAll	;
 J027            	99.173000   	0           	                	;
 J028            	98.348440   	0           	                	;
 J029            	102.357100  	0.011007    	P_StServaisCentreAll	;
 J030            	121.764500  	0.009360    	P_StServaisCentreAll	;
 J031            	92.963670   	0.001907    	P_StServaisCentreAll	;
 J032            	94.056530   	0           	                	;
 J033            	101.898900  	0           	                	;
 J034            	109.104400  	0           	                	;
 J035            	101.398500  	0.015167    	P_StServaisCentreAll	;
 J036            	90.499410   	0           	                	;
 J037            	99.462700   	0.002340    	P_StServaisCentreAll	;
 J038            	90.849800   	0           	                	;
 J039            	90.472890   	0           	                	;
 J040            	90.264430   	0           	                	;
 J041            	90.934230   	0           	                	;
 J042            	104.590200  	0.029553    	P_StServaisCentreAll	;
 J043            	90.969830   	0           	                	;
 J044            	104.497200  	0           	                	;
 J045            	90.969830   	0.001127    	P_StServaisCentreAll	;
 J046            	90.592800   	0           	                	;
 J047            	93.018340   	0           	                	;
 J048            	93.012830   	0.017333    	P_StServaisCentreAll	;
 J049            	92.775980   	0           	                	;
 J050            	92.745830   	0.012740    	P_StServaisCentreAll	;
 J051            	91.260840   	0           	                	;
 J052            	91.260840   	0           	                	;
 J053            	90.240510   	0           	                	;
 J054            	89.578380   	0           	                	;
 J055            	89.667300   	0           	                	;
 J056            	89.869230   	0           	                	;
 J057            	89.594020   	0           	                	;
 J058            	89.088430   	0           	                	;
 J059            	101.068100  	0           	                	;
 J060            	104.386300  	0.015947    	P_StServaisCentreAll	;
 J061            	104.855800  	0.011093    	P_StServaisCentreAll	;
 J062            	102.709900  	0.029207    	P_StServaisCentreAll	;
 J063            	104.226200  	0           	                	;
 J064            	104.226200  	0.031893    	P_StServaisCentreAll	;
 J065            	103.730200  	0           	                	;
 J066            	103.837500  	0           	                	;
 J067            	101.780300  	0           	                	;
 J068            	103.463500  	0.003987    	P_StServaisCentreAll	;
 J069            	103.098600  	0           	                	;
 J070            	103.098600  	0.091433    	P_StServaisCentreAll	;
 J071            	91.395870   	0           	                	;
 J072            	91.618190   	0           	                	;
 J073            	91.711490   	0           	                	;
 J074            	96.690380   	0.000000    	P_StServaisCentreAll	;
 J075            	100.594900  	0.013953    	P_StServaisCentreAll	;
 J076            	100.158500  	0.009967    	P_StServaisCentreAll	;
 J077            	100.633200  	0.027993    	P_StServaisCentreAll	;
 J078            	92.023560   	0           	                	;
 J079            	99.689000   	0.005200    	P_StServaisCentreAll	;
 J080            	93.792720   	0.010573    	P_StServaisCentreAll	;
 J081            	96.351090   	0           	                	;
 J082            	97.088100   	0           	                	;
 J083            	97.088100   	0           	                	;
 J084            	96.579670   	0           	                	;
 J085            	99.614900   	0.027993    	P_StServaisCentreAll	;
 J086            	96.596410   	0.011267    	P_StServaisCentreAll	;
 J087            	96.596410   	0           	                	;
 J088            	96.012090   	0.012307    	P_StServaisCentreAll	;
 J089            	100.647200  	0.037527    	P_StServaisCentreAll	;
 J090            	101.217100  	0           	                	;
 J091            	101.657300  	0.000000    	P_StServaisCentreAll	;
 J092            	101.657300  	0           	                	;
 J093            	101.859400  	0           	                	;
 J094            	101.756000  	0           	                	;
 J095            	101.449000  	0           	                	;
 J096            	101.339900  	0           	                	;
 J097            	100.701700  	0           	                	;
 J098            	100.714100  	0.074100    	P_StServaisCentreAll	;
 J099            	100.714100  	0           	                	;
 J100            	99.435800   	0           	                	;
 J101            	98.350430   	0.001907    	P_StServaisCentreAll	;
 J102            	97.358270   	0.055553    	P_StServaisCentreAll	;
 J103            	92.637110   	0           	                	;
 J104            	92.637110   	0           	                	;
 J105            	92.546590   	0           	                	;
 J106            	92.546590   	0           	                	;
 J107            	92.569770   	0.001560    	P_StServaisCentreAll	;
 J108            	91.921350   	0           	                	;
 J109            	92.603210   	0.000000    	P_StServaisCentreAll	;
 J110            	92.537710   	0           	                	;
 J111            	92.537710   	0.027733    	P_StServaisCentreAll	;
 J112            	92.255390   	0.011960    	P_StServaisCentreAll	;
 J113            	92.732350   	0.027560    	P_StServaisCentreAll	;
 J114            	90.937330   	0.023053    	P_StServaisCentreAll	;
 J115            	90.937330   	0           	                	;
 J116            	88.729300   	0           	                	;
 J117            	88.729300   	0           	                	;
 J118            	88.474350   	0.075313    	P_StServaisCentreAll	;
 J119            	89.337900   	0           	                	;
 J120            	92.545810   	0.000000    	P_StServaisCentreAll	;
 J121            	92.545810   	0.000000    	P_StServaisCentreAll	;
 J122            	92.022510   	0.020973    	P_StServaisCentreAll	;
 J123            	91.556590   	0.018807    	P_StServaisCentreAll	;
 J124            	92.549670   	0           	                	;
 J125            	92.023560   	0           	                	;
 J126            	90.382510   	0           	                	;
 J127            	94.704350   	0           	                	;
 J128            	92.840240   	0           	                	;
 J129            	93.086780   	0           	                	;
 J130            	92.662350   	0.076527    	P_StServaisCentreAll	;
 J131            	92.539020   	0.019153    	P_StServaisCentreAll	;
 J132            	92.329340   	0.029640    	P_StServaisCentreAll	;
 J133            	92.404710   	0           	                	;
 J134            	92.477400   	0           	                	;
 J135            	92.780560   	0.000000    	P_StServaisCentreAll	;
 J136            	95.465790   	0.009967    	P_StServaisCentreAll	;
 J137            	99.506700   	0.121333    	P_StServaisCentreAll	;
 J138            	99.506700   	0           	                	;
 J139            	99.506700   	0           	                	;
 J140            	99.637800   	0.000000    	P_StServaisCentreAll	;
 J141            	99.173000   	0           	                	;
 J142            	98.348440   	0           	                	;
 J143            	98.079560   	0           	                	;
 J144            	98.091170   	0           	                	;
 J145            	98.091170   	0.012827    	P_StServaisCentreAll	;
 J146            	95.859690   	0           	                	;
 J147            	93.468080   	0.000000    	P_StServaisCentreAll	;
 J148            	97.987820   	0.029380    	P_StServaisCentreAll	;
 J149            	97.745800   	0.000173    	P_StServaisCentreAll	;
 J150            	97.811110   	0           	                	;
 J151            	97.864040   	0           	                	;
 J152            	97.848850   	0           	                	;
 J153            	97.701220   	0           	                	;
 J154            	97.864530   	0           	                	;
 J155            	97.829350   	0           	                	;
 J156            	97.829350   	0.000000    	P_StServaisCentreAll	;
 J157            	97.858600   	0           	                	;
 J158            	97.829350   	0           	                	;
 J159            	97.894660   	0.005893    	P_StServaisCentreAll	;
 J160            	93.661770   	0           	                	;
 J161            	93.434980   	0           	                	;
 J162            	93.210010   	0           	                	;
 J163            	93.138780   	0           	                	;
 J164            	93.133750   	0.072020    	P_StServaisCentreAll	;
 J165            	98.550450   	0.012307    	P_StServaisCentreAll	;
 J166            	98.765990   	0.027387    	P_StServaisCentreAll	;
 J167            	98.765990   	0.039953    	P_StServaisCentreAll	;
 J168            	92.895030   	0.009880    	P_StServaisCentreAll	;
 J169            	93.017220   	0           	                	;
 J170            	99.660800   	0.029987    	P_StServaisCentreAll	;
 J171            	99.660800   	0.001647    	P_StServaisCentreAll	;
 J172            	92.839550   	0.022967    	P_StServaisCentreAll	;
 J173            	100.377100  	0           	                	;
 J174            	95.757840   	0.005547    	P_StServaisCentreAll	;
 J175            	95.859690   	0           	                	;
 J176            	95.322360   	0           	                	;
 J177            	95.776540   	0           	                	;
 J178            	96.480540   	0           	                	;
 J179            	95.776540   	0.052520    	P_StServaisCentreAll	;
 J180            	95.776540   	0           	                	;
 J181            	96.483240   	0.011787    	P_StServaisCentreAll	;
 J182            	97.138870   	0           	                	;
 J183            	97.138870   	0           	                	;
 J184            	97.005290   	0.000000    	P_StServaisCentreAll	;
 J185            	96.447200   	0           	                	;
 J186            	107.120300  	0           	                	;
 J187            	105.567900  	0           	                	;
 J188            	105.567900  	0.030073    	P_StServaisCentreAll	;
 J189            	95.380020   	0           	                	;
 J190            	104.306600  	0.003727    	P_StServaisCentreAll	;
 J191            	106.927100  	0.029033    	P_StServaisCentreAll	;
 J192            	104.901000  	0.049573    	P_StServaisCentreAll	;
 J193            	93.344690   	0.000000    	P_StServaisCentreAll	;
 J194            	93.344690   	0           	                	;
 J195            	93.289270   	0           	                	;
 J196            	93.549380   	0.000000    	P_StServaisCentreAll	;
 J197            	93.285260   	0.042813    	P_StServaisCentreAll	;
 J198            	94.644880   	0           	                	;
 J199            	95.230130   	0.013173    	P_StServaisCentreAll	;
 J200            	96.493900   	0.026347    	P_StServaisCentreAll	;
 J201            	94.915760   	0           	                	;
 J202            	115.403000  	0.019847    	P_StServaisCentreAll	;
 J203            	109.565900  	0.046107    	P_StServaisCentreAll	;
 J204            	108.514500  	0           	                	;
 J205            	105.378100  	0           	                	;
 J206            	104.726000  	0           	                	;
 J207            	105.378100  	0           	                	;
 J208            	101.003200  	0.005980    	P_StServaisCentreAll	;
 J209            	116.719700  	0           	                	;
 J210            	119.075400  	0           	                	;
 J211            	91.640400   	0           	                	;
 J212            	91.808830   	0           	                	;
 J213            	92.340420   	0.012133    	P_StServaisCentreAll	;
 J214            	112.402500  	0.022360    	P_StServaisCentreAll	;
 J215            	100.774600  	0.017593    	P_StServaisCentreAll	;
 J216            	101.898900  	0.015600    	P_StServaisCentreAll	;
 J217            	101.898900  	0           	                	;
 J218            	103.701600  	0.006847    	P_StServaisCentreAll	;
 J219            	102.238900  	0           	                	;
 J220            	102.703400  	0.046107    	P_StServaisCentreAll	;
 J221            	102.703400  	0           	                	;
 J222            	102.703400  	0           	                	;
 J223            	102.390800  	0.011787    	P_StServaisCentreAll	;
 J224            	110.800800  	0.021753    	P_StServaisCentreAll	;
 J225            	113.089500  	0           	                	;
 J226            	111.073200  	0.007020    	P_StServaisCentreAll	;
 J227            	97.177750   	0           	                	;
 J228            	96.865180   	0           	                	;
 J229            	96.552230   	0           	                	;
 J230            	111.073200  	0           	                	;VANNE
 J231            	111.073200  	0           	                	;VANNE
 J232            	112.402500  	0           	                	;VANNE
 J233            	113.129400  	0.028773    	P_StServaisCentreAll	;VANNE
 J234            	117.855500  	0.029033    	P_StServaisCentreAll	;VANNE FERMEE CONDAMNEE
 J235            	114.027200  	0.005633    	P_StServaisCentreAll	;VANNE
 J236            	115.299400  	0.006587    	P_StServaisCentreAll	;VANNE
 J237            	116.719700  	0           	                	;VANNE
 J238            	116.775500  	0           	                	;VANNE FERMEE CONDAMNEE
 J239            	95.230130   	0           	                	;VANNE
 J240            	94.915760   	0.010660    	P_StServaisCentreAll	;VANNE
 J241            	94.915760   	0           	                	;VANNE
 J242            	99.506700   	0           	                	;VANNE
 J243            	99.506700   	0           	                	;VANNE
 J244            	99.154200   	0.038653    	P_StServaisCentreAll	;VANNE
 J245            	101.217100  	0.044373    	P_StServaisCentreAll	;VANNE
 J246            	101.657300  	0.000000    	P_StServaisCentreAll	;VANNE
 J247            	92.775980   	0           	                	;VANNE
 J248            	91.395870   	0           	                	;VANNE
 J249            	91.395870   	0           	                	;VANNE
 J250            	90.934230   	0           	                	;VANNE
 J251            	93.012830   	0           	                	;VANNE
 J252            	97.358270   	0           	                	;VANNE
 J253            	96.611620   	0           	                	;VANNE
 J254            	107.120300  	0           	                	;VANNE FERMEE CONDAMNEE
 J255            	105.567900  	0           	                	;VANNE
 J256            	95.380020   	0.000000    	P_StServaisCentreAll	;VANNE
 J257            	97.483430   	0           	                	;VANNE FERMEE
 J258            	95.380020   	0           	                	;VANNE FERMEE
 J259            	104.901000  	0           	                	;VANNE
 J260            	107.120300  	0           	                	;VANNE FERMEE CONDAMNEE
 J261            	115.403000  	0.021667    	P_StServaisCentreAll	;VANNE
 J262            	115.347700  	0.004940    	P_StServaisCentreAll	;VANNE
 J263            	109.565900  	0           	                	;VANNE FERMEE CONDAMNEE
 J264            	108.265400  	0.006587    	P_StServaisCentreAll	;VANNE
 J265            	105.378100  	0.022187    	P_StServaisCentreAll	;VANNE
 J266            	104.726000  	0.000953    	P_StServaisCentreAll	;VANNE
 J267            	105.378100  	0           	                	;VANNE
 J268            	104.017100  	0.042207    	P_StServaisCentreAll	;VANNE
 J269            	104.679100  	0.020627    	P_StServaisCentreAll	;VANNE
 J270            	101.068100  	0           	                	;VANNE
 J271            	101.068100  	0.028253    	P_StServaisCentreAll	;VANNE
 J272            	101.068100  	0           	                	;VANNE
 J273            	104.386300  	0           	                	;VANNE
 J274            	100.633200  	0.014560    	P_StServaisCentreAll	;VANNE
 J275            	100.158500  	0.019847    	P_StServaisCentreAll	;VANNE
 J276            	100.619000  	0.063007    	P_StServaisCentreAll	;VANNE
 J277            	99.689000   	0.010140    	P_StServaisCentreAll	;VANNE
 J278            	102.709900  	0.006500    	P_StServaisCentreAll	;VANNE
 J279            	97.088100   	0.045240    	P_StServaisCentreAll	;VANNE
 J280            	97.088100   	0           	                	;VANNE
 J281            	103.098600  	0.047233    	P_StServaisCentreAll	;VANNE
 J282            	103.098600  	0           	                	;VANNE
 J283            	98.336650   	0           	                	;VANNE
 J284            	98.336650   	0           	                	;VANNE
 J285            	102.246800  	0.018980    	P_StServaisCentreAll	;VANNE
 J286            	101.859400  	0           	                	;VANNE
 J287            	101.449000  	0           	                	;VANNE
 J288            	100.701700  	0           	                	;VANNE
 J289            	99.978900   	0           	                	;VANNE
 J290            	90.444330   	0           	                	;VANNE
 J291            	90.240510   	0           	                	;VANNE
 J292            	90.240510   	0           	                	;VANNE
 J293            	90.240510   	0           	                	;VANNE
 J294            	89.820490   	0           	                	;VANNE
 J295            	89.869230   	0           	                	;VANNE
 J296            	89.748410   	0           	                	;VANNE
 J297            	88.729300   	0.011700    	P_StServaisCentreAll	;VANNE
 J298            	88.600650   	0           	                	;VANNE
 J299            	99.305600   	0.056507    	P_StServaisCentreAll	;VANNE
 J300            	99.637800   	0.014733    	P_StServaisCentreAll	;VANNE
 J301            	99.173000   	0           	                	;VANNE
 J302            	98.348440   	0           	                	;VANNE
 J303            	98.091170   	0           	                	;VANNE
 J304            	98.091170   	0           	                	;VANNE
 J305            	97.987820   	0           	                	;VANNE
 J306            	97.993480   	0           	                	;VANNE
 J307            	98.079560   	0           	                	;VANNE
 J308            	97.912440   	0.000000    	P_StServaisCentreAll	;VANNE
 J309            	97.993480   	0           	                	;VANNE
 J310            	97.745800   	0.017767    	P_StServaisCentreAll	;VANNE
 J311            	97.745800   	0           	                	;VANNE
 J312            	97.811110   	0           	                	;VANNE
 J313            	97.822340   	0           	                	;VANNE
 J314            	97.848850   	0           	                	;VANNE
 J315            	97.701220   	0.000000    	P_StServaisCentreAll	;VANNE
 J316            	97.864530   	0.009533    	P_StServaisCentreAll	;VANNE
 J317            	97.864530   	0           	                	;VANNE
 J318            	97.829350   	0           	                	;VANNE
 J319            	97.829350   	0.075573    	P_StServaisCentreAll	;VANNE
 J320            	97.829350   	0           	                	;VANNE
 J321            	97.858600   	0.000000    	P_StServaisCentreAll	;VANNE
 J322            	97.829350   	0           	                	;VANNE
 J323            	95.465790   	0.002687    	P_StServaisCentreAll	;VANNE
 J324            	92.537710   	0           	                	;VANNE
 J325            	92.537710   	0.005113    	P_StServaisCentreAll	;VANNE
 J326            	92.379360   	0.017767    	P_StServaisCentreAll	;VANNE
 J327            	91.921350   	0           	                	;VANNE
 J328            	92.710930   	0           	                	;VANNE
 J329            	92.662350   	0.024613    	P_StServaisCentreAll	;VANNE
 J330            	92.659710   	0           	                	;VANNE
 J331            	92.743110   	0           	                	;VANNE
 J332            	93.086780   	0           	                	;VANNE
 J333            	92.978930   	0.000000    	P_StServaisCentreAll	;VANNE
 J334            	92.840240   	0.009187    	P_StServaisCentreAll	;VANNE
 J335            	92.637110   	0           	                	;VANNE
 J336            	92.569770   	0.099667    	P_StServaisCentreAll	;VANNE
 J337            	92.527800   	0           	                	;VANNE
 J338            	92.537710   	0           	                	;VANNE
 J339            	92.603210   	0.000000    	P_StServaisCentreAll	;VANNE
 J340            	91.942960   	0.084153    	P_StServaisCentreAll	;VANNE
 J341            	94.553370   	0.005893    	P_StServaisCentreAll	;VANNE
 J342            	95.014140   	0           	                	;VANNE
 J343            	95.250150   	0.026867    	P_StServaisCentreAll	;VANNE
 J344            	96.012090   	0           	                	;VANNE
 J345            	96.596410   	0           	                	;VANNE
 J346            	96.596410   	0           	                	;VANNE
 J347            	97.336630   	0           	                	;VANNE
 J348            	97.358270   	0           	                	;VANNE
 J349            	96.579670   	0.002600    	P_StServaisCentreAll	;VANNE
 J350            	96.351090   	0.013000    	P_StServaisCentreAll	;VANNE
 J351            	96.579670   	0.000693    	P_StServaisCentreAll	;VANNE
 J352            	91.701260   	0           	                	;VANNE
 J353            	92.022510   	0           	                	;VANNE
 J354            	90.640820   	0           	                	;VANNE
 J355            	92.549670   	0           	                	;VANNE
 J356            	92.203970   	0.022793    	P_StServaisCentreAll	;VANNE
 J357            	92.329340   	0           	                	;VANNE
 J358            	91.511380   	0           	                	;VANNE
 J359            	92.023560   	0           	                	;VANNE
 J360            	92.023560   	0.003727    	P_StServaisCentreAll	;VANNE
 J361            	92.023560   	0           	                	;VANNE
 J362            	92.404710   	0.012307    	P_StServaisCentreAll	;VANNE
 J363            	92.404710   	0           	                	;VANNE
 J364            	92.477400   	0.016553    	P_StServaisCentreAll	;VANNE
 J365            	92.670230   	0           	                	;VANNE
 J366            	92.780560   	0.000000    	P_StServaisCentreAll	;VANNE
 J367            	92.670230   	0.000000    	P_StServaisCentreAll	;VANNE
 J368            	92.546590   	0           	                	;VANNE
 J369            	90.434170   	0.014300    	P_StServaisCentreAll	;VANNE FERMEE
 J370            	90.937330   	0.016380    	P_StServaisCentreAll	;VANNE
 J371            	90.937330   	0.001993    	P_StServaisCentreAll	;VANNE
 J372            	89.667300   	0           	                	;VANNE
 J373            	89.578380   	0           	                	;VANNE
 J374            	89.578380   	0           	                	;VANNE
 J375            	90.822660   	0           	                	;VANNE
 J376            	90.472890   	0           	                	;VANNE
 J377            	99.435800   	0           	                	;VANNE
 J378            	101.126100  	0           	                	;VANNE
 J379            	103.562500  	0.076180    	P_StServaisCentreAll	;VANNE
 J380            	103.610600  	0           	                	;VANNE
 J381            	102.906900  	0           	                	;VANNE
 J382            	103.730200  	0.028947    	P_StServaisCentreAll	;VANNE
 J383            	91.711490   	0           	                	;VANNE
 J384            	104.226200  	0.071587    	P_StServaisCentreAll	;VANNE
 J385            	104.226200  	0           	                	;VANNE
 J386            	99.462700   	0           	                	;VANNE
 J387            	90.499410   	0           	                	;VANNE
 J388            	90.592800   	0           	                	;VANNE
 J389            	90.592800   	0           	                	;VANNE FERMEE CONDAMNEE
 J390            	91.945590   	0           	                	;VANNE
 J391            	91.562380   	0           	                	;VANNE
 J392            	92.340420   	0.000693    	P_StServaisCentreAll	;VANNE
 J393            	92.545810   	0           	                	;VANNE
 J394            	96.690380   	0.000000    	P_StServaisCentreAll	;VANNE
 J395            	98.550450   	0           	                	;VANNE
 J396            	98.765990   	0           	                	;VANNE
 J397            	99.660800   	0           	                	;VANNE
 J398            	99.660800   	0           	                	;VANNE
 J399            	100.377100  	0.034233    	P_StServaisCentreAll	;VANNE
 J400            	100.377100  	0           	                	;VANNE
 J401            	100.377100  	0.009707    	P_StServaisCentreAll	;VANNE
 J402            	104.855800  	0.018807    	P_StServaisCentreAll	;VANNE
 J403            	104.497200  	0           	                	;VANNE
 J404            	104.497200  	0.010747    	P_StServaisCentreAll	;VANNE
 J405            	104.288500  	0.028253    	P_StServaisCentreAll	;VANNE
 J406            	91.640400   	0           	                	;VANNE
 J407            	91.808830   	0           	                	;VANNE
 J408            	91.592170   	0.000000    	P_StServaisCentreAll	;VANNE
 J409            	93.051670   	0           	                	;VANNE
 J410            	91.808830   	0           	                	;VANNE
 J411            	93.138780   	0.093427    	P_StServaisCentreAll	;VANNE
 J412            	93.133750   	0           	                	;VANNE
 J413            	93.133750   	0           	                	;VANNE
 J414            	96.213460   	0           	                	;VANNE
 J415            	95.538410   	0.037527    	P_StServaisCentreAll	;VANNE
 J416            	108.514500  	0           	                	;VANNE FERMEE CONDAMNEE
 J417            	105.378100  	0.000000    	P_StServaisCentreAll	;VANNE
 J418            	95.210560   	0.102613    	P_StServaisCentreAll	;VANNE
 J419            	93.468080   	0           	                	;VANNE
 J420            	93.376880   	0           	                	;VANNE
 J421            	93.289270   	0           	                	;VANNE
 J422            	93.344690   	0           	                	;VANNE
 J423            	93.344690   	0           	                	;VANNE
 J424            	95.989030   	0           	                	;VANNE
 J425            	95.230130   	0           	                	;VANNE
 J426            	97.138870   	0           	                	;VANNE
 J427            	97.138870   	0           	                	;VANNE FERMEE
 J428            	96.447200   	0.000000    	P_StServaisCentreAll	;VANNE
 J429            	95.865960   	0           	                	;VANNE
 J430            	97.005290   	0           	                	;VANNE
 J431            	97.005290   	0           	                	;VANNE
 J432            	96.480540   	0.000000    	P_StServaisCentreAll	;VANNE
 J433            	96.064930   	0.000000    	P_StServaisCentreAll	;VANNE
 J434            	95.776540   	0.000000    	P_StServaisCentreAll	;VANNE
 J435            	95.776540   	0           	                	;VANNE
 J436            	95.757840   	0.000867    	P_StServaisCentreAll	;VANNE
 J437            	95.859690   	0.003120    	P_StServaisCentreAll	;VANNE